LAMMPS (29 Sep 2021 - Update 2)
# Input file for recoil events (mimic AIMD setup, 0K), not ideal for general simulations

# ------------------------ INITIALIZATION ----------------------------
echo both
units 		metal
dimension	3
boundary	p	p	p
atom_style	atomic
atom_modify map array
# ----------------------- ATOM DEFINITION ----------------------------

read_data read_data.lmp
Reading data file ...
  triclinic box = (0.0000000 0.0000000 0.0000000) to (16.096603 13.940055 15.734516) with tilt (8.0482915 -6.1373507e-07 -8.6420997e-07)
  reading atoms ...
  300 atoms
  reading velocities ...
  300 velocities

# Define minimization parameters
variable etol equal 1.0e-15
variable ftol equal 1.0e-10
variable maxiter equal 10000
variable maxeval equal 100000

mass         1 69.723
mass         2 14.007

group           Ga type 1
150 atoms in group Ga
group           N type 2
150 atoms in group N

variable Natom equal count(all)
variable N0 equal 300

# ------------------------ FORCE FIELDS ------------------------------
pair_style      sw
pair_coeff      * * AlGaN.sw Ga N
Reading sw potential file AlGaN.sw with DATE: 28

neigh_modify    every 1 delay 0 check yes
thermo 100
thermo_style custom step dt time press pe temp lx
min_style	     cg
minimize 1e-15 1e-10 10000 100000
  update every 1 steps, delay 0 steps, check yes
Step Dt Time Press PotEng Temp Lx
0        0.001            0   -39928.443   -1300.8108    776.22084    16.096603
Loop time of 0.00252854 on 24 procs for 10 steps with 300 atoms

Minimization stats:
  Stopping criterion = energy tolerance
  Energy initial, next-to-last, final =
  Force two-norm initial, final = 3.8341516 3.6831658e-06
  Force max component initial, final = 0.22142751 3.8535141e-07
  Final line search alpha, max atom move = 1.0000000 3.8535141e-07
  Iterations, force evaluations = 10 20

run 0
Step Dt Time Press PotEng Temp Lx
10        0.001            0   -39973.782   -1300.9313    776.22084    16.096603
Loop time of 2.14926e-06 on 24 procs for 0 steps with 300 atoms

replicate   3 3 2
Replicating atoms ...
  triclinic box = (0.0000000 0.0000000 0.0000000) to (48.289809 41.820164 31.469031) with tilt (24.144875 -1.2274701e-06 -1.7284199e-06)
  5400 atoms
  replicate CPU = 0.001 seconds
variable N1 equal 5400
group added id > 300
5100 atoms in group added
velocity added set 0.0 0.0 0.0
run 0
Step Dt Time Press PotEng Temp Lx
10        0.001            0   -48545.435   -23416.764    42.987596    48.289809
Loop time of 2.41814e-06 on 24 procs for 0 steps with 5400 atoms

variable      E   equal    "pe"
variable Ei equal $E
variable Ei equal -23416.7637532325

timestep 0.001

fix            1 all nve
fix            3 all dt/reset 1 1.0e-6 1.0e-3 0.05 units box
run            10000
Step Dt Time Press PotEng Temp Lx
10 0.00054872129            0   -48545.435   -23416.764    42.987596    48.289809
Averages over the last 51 of 102 rows, steps 5100 to 10010:
Dt Press PotEng Temp Lx
0.001 -48703.6 -23401.7 21.3653 48.2898
Loop time of 6.64666 on 24 procs for 10000 steps with 5400 atoms

dump           1 all custom 100000 dump.final id type x y z
dump_modify    1 first no
min_style	     cg
minimize 1e-15 1e-10 10000 100000
Step Dt Time Press PotEng Temp Lx
10010        0.001    9.9834689   -48702.555   -23401.646    21.318053    48.289809
Loop time of 0.146072 on 24 procs for 107 steps with 5400 atoms

Minimization stats:
  Stopping criterion = energy tolerance
  Energy initial, next-to-last, final =
  Force two-norm initial, final = 23.349479 2.2059770e-05
  Force max component initial, final = 1.2072073 7.2623397e-07
  Final line search alpha, max atom move = 1.0000000 7.2623397e-07
  Iterations, force evaluations = 107 214

variable Ef equal $E
variable Ef equal -23416.7637532325

Total number of atoms = 5400
Initial energy of atoms = -23416.7637532325
Final energy of atoms = -23416.7637532325
